Version 4
SHEET 1 1684 680
WIRE 224 -32 -368 -32
WIRE 528 -32 224 -32
WIRE 624 -32 528 -32
WIRE 720 -32 624 -32
WIRE 832 -32 720 -32
WIRE 912 -32 832 -32
WIRE 1040 -32 912 -32
WIRE 624 0 624 -32
WIRE 1040 0 1040 -32
WIRE 480 16 0 16
WIRE 544 16 480 16
WIRE 720 16 720 -32
WIRE 832 16 832 -32
WIRE 912 16 912 -32
WIRE 224 48 224 -32
WIRE -368 80 -368 -32
WIRE 0 112 0 16
WIRE 64 112 0 112
WIRE 432 112 384 112
WIRE 496 112 432 112
WIRE 544 112 544 16
WIRE 624 112 624 80
WIRE 624 112 544 112
WIRE 720 112 720 80
WIRE 720 112 624 112
WIRE 832 112 832 80
WIRE 912 112 912 80
WIRE 912 112 832 112
WIRE 1040 112 1040 80
WIRE 1040 112 912 112
WIRE 912 128 912 112
WIRE -368 192 -368 160
WIRE -288 192 -368 192
WIRE -160 192 -224 192
WIRE 64 192 -160 192
WIRE 544 192 384 192
WIRE 576 192 544 192
WIRE -160 224 -160 192
WIRE -368 272 -368 192
WIRE 0 272 -64 272
WIRE 64 272 0 272
WIRE 432 272 432 176
WIRE 432 272 384 272
WIRE 496 272 496 176
WIRE 496 272 432 272
WIRE 560 272 496 272
WIRE 624 272 624 208
WIRE 624 272 560 272
WIRE 672 272 624 272
WIRE 800 272 752 272
WIRE 896 272 800 272
WIRE 992 272 896 272
WIRE 1040 272 992 272
WIRE 1104 272 1040 272
WIRE 1280 272 1104 272
WIRE -64 288 -64 272
WIRE 1104 288 1104 272
WIRE -160 320 -160 288
WIRE 624 336 624 272
WIRE 800 336 800 272
WIRE 896 336 896 272
WIRE 992 336 992 272
WIRE 1280 336 1280 272
WIRE 224 384 224 336
WIRE 1104 384 1104 368
WIRE 1200 384 1104 384
WIRE -368 432 -368 336
WIRE -160 432 -160 400
WIRE -160 432 -368 432
WIRE -64 432 -64 352
WIRE -64 432 -160 432
WIRE -64 464 -64 432
WIRE 624 480 624 400
WIRE 800 480 800 400
WIRE 800 480 624 480
WIRE 896 480 896 400
WIRE 896 480 800 480
WIRE 992 480 992 400
WIRE 992 480 896 480
WIRE 1104 480 1104 464
WIRE 1104 480 992 480
WIRE 1280 480 1280 416
WIRE 1280 480 1104 480
WIRE 896 512 896 480
WIRE 0 544 0 272
WIRE 1200 544 1200 384
WIRE 1200 544 0 544
FLAG 224 384 0
FLAG 912 128 0
FLAG 896 512 0
FLAG -64 464 0
FLAG 528 -32 vi
FLAG 560 272 vsw
FLAG 1040 272 vo
FLAG 544 192 vdrv
FLAG 480 16 vsense
SYMBOL PowerProducts\\LTC1624 224 192 R0
SYMATTR InstName U1
SYMBOL ind 656 288 R270
WINDOW 0 32 56 VTop 2
WINDOW 3 5 56 VBottom 2
SYMATTR InstName L1
SYMATTR Value 47µ
SYMATTR SpiceLine Ipk=8.7
SYMBOL res 608 -16 R0
SYMATTR InstName R1
SYMATTR Value 12m
SYMATTR SpiceLine tol=20
SYMBOL res 1088 272 R0
SYMATTR InstName R2
SYMATTR Value 18k
SYMATTR SpiceLine tol=20
SYMBOL res 1088 368 R0
SYMATTR InstName R3
SYMATTR Value 5.6k
SYMATTR SpiceLine tol=20
SYMBOL cap 896 16 R0
SYMATTR InstName C1
SYMATTR Value 330µ
SYMATTR SpiceLine Rser=20m
SYMBOL cap 880 336 R0
SYMATTR InstName C2
SYMATTR Value 1000µ
SYMATTR SpiceLine V=16 Rser=60m
SYMBOL nmos 576 112 R0
SYMATTR InstName M1
SYMATTR Value irf7470
SYMATTR Prefix X
SYMBOL diode 640 400 R180
WINDOW 0 24 64 Left 2
WINDOW 3 24 0 Left 2
SYMATTR InstName D1
SYMATTR Value MBRB1645
SYMBOL voltage 1040 -16 R0
WINDOW 123 0 0 Left 0
WINDOW 39 24 124 Left 2
SYMATTR SpiceLine Rser=0
SYMATTR InstName V1
SYMATTR Value 12
SYMBOL cap 976 336 R0
SYMATTR InstName C3
SYMATTR Value 1000µ
SYMATTR SpiceLine V=16 Rser=60m
SYMBOL cap 480 112 R0
SYMATTR InstName C4
SYMATTR Value 0.1µ
SYMATTR SpiceLine V=50
SYMBOL cap 416 112 R0
SYMATTR InstName C5
SYMATTR Value 0.1µ
SYMATTR SpiceLine V=50
SYMBOL cap 704 16 R0
SYMATTR InstName C6
SYMATTR Value 1n
SYMATTR SpiceLine V=50
SYMBOL cap -80 288 R0
SYMATTR InstName C7
SYMATTR Value 100p
SYMATTR SpiceLine V=50
SYMBOL cap -176 224 R0
SYMATTR InstName C8
SYMATTR Value 1n
SYMBOL res -176 304 R0
SYMATTR InstName R4
SYMATTR Value 5.6k
SYMBOL current 1280 336 R0
WINDOW 123 24 108 Left 2
WINDOW 39 0 0 Left 0
SYMATTR Value2 AC 0.01
SYMATTR InstName I1
SYMATTR Value PULSE(2 8 50m 1n 1n 10m 20m)
SYMBOL diode -224 176 R90
WINDOW 0 0 32 VBottom 2
WINDOW 3 32 32 VTop 2
SYMATTR InstName D2
SYMATTR Value 1N4148
SYMBOL cap -384 272 R0
SYMATTR InstName C9
SYMATTR Value 1µF
SYMBOL res -384 64 R0
SYMATTR InstName R5
SYMATTR Value 1Meg
SYMBOL cap 784 336 R0
SYMATTR InstName C10
SYMATTR Value 180µ
SYMATTR SpiceLine Rser=11m
SYMBOL cap 816 16 R0
SYMATTR InstName C11
SYMATTR Value 330µ
SYMATTR SpiceLine Rser=20m
TEXT -336 0 Left 2 !.lib irf7470.spi
TEXT -288 88 Left 2 !.lib MBRB1645.spi
TEXT -360 552 Left 2 !.tran 0 100m 0 1m startup
