**$ENCRYPTED_LIB
**$INTERFACE
* DRV8874
*****************************************************************************
* (C) Copyright 2018 Texas Instruments Incorporated. All rights reserved.
*****************************************************************************
** This model is designed as an aid for customers of Texas Instruments.
** TI and its licensors and suppliers make no warranties, either expressed
** or implied, with respect to this model, including the warranties of
** merchantability or fitness for a particular purpose. The model is
** provided solely on an "as is" basis. The entire risk as to its quality
** and performance is with the customer.
*****************************************************************************
*
** Released by: WEBENCH Design Center, Texas Instruments Inc.
* Part: DRV8874
* Date: 14MAY2018
* Model Type: Transient
* Simulator: PSPICE
* Simulator Version: 16.2.0.s003
* EVM Order Number:
* EVM Users Guide:
* Datasheet:
*
* Model Version: Final 1.00
*
*****************************************************************************
*
* Updates:
*
* Final 1.00
* Release to Web
*
*****************************************************************************
* Model Usage Notes:
*
* A. Features that have been modelled
*	1. Control Mode
*	2. Current Senses
*	3. Current Chopping Mode
*	4. Over Current Respond
*	5. Rds
*	6. UVLO, Logic Level, Tri-Level Logic, Quad-Level Logic
*	
*
* B. Model Limitations and Features that haven't been modelled
*	1. Thermal operation and quiscent current are not modelled   
*   2. Charge pump operation
*
*****************************************************************************
*$
.SUBCKT DRV8874_TRANS CPH CPL EN_IN1 GND IMODE IPROPI nFAULT nSLEEP OUT1 OUT2 PGND PAD
+  PH_IN2 PMODE VCP VM VREF  
$CDNENCSTART
eee8c5c7a2bc4b01f045f303678664e7916da0bae22e8cb0bba041dd67c69ce448ea70148a9ac1670c8926c1ac5057c8ccfcd77bf87ca9dc81b4ed8a1b01263d
abc05a84349f7fe5a60fd3951de4fe9401816d4faac76bd1d37750f413b01fab710f626c2faf14a6e0ab3ae947f45188af477671ba7982f5edf0a726cf1e7f38
394197bedeb77a71a60fd3951de4fe946179b478a64409d17b73f7a671de623324fdfd9bb2e10b071f225df01e2556ba620ebef4ba9171e0880a9ffe57fced9e
48a94d11d238250f662febb6a070437f79022f5ca4c292eb38fb53f77a066e44eb872b48c320cff567606bfcc6bb9c7bcfa7437c6ba53d95ebe1599db11567e4
e27969a987c986ed16cfa8a814592823af0e804c85ed03202bf8eb8efe9f6c561e05e58dd86548e3bc23143b1b3661d913a936b0e81b24bfa3dc54f09d88c1c2
6baa4c351fc5e3adb045c149b70fbd51f1d584d59931918500caba188d4f4140006d362d407033f23c1b981a6632fdfb36e503a94be263c3bfb54eb10fe3ef8a
cdaa385411811e27bfd81d659a09e4b32637e9cac2aa5ceafd49a287c76beca9cf3db11be050388576208e2e508e0c3b35f9ffb4f4477312fd728836e7a224a5
e27969a987c986edd34972c23532be78af0e804c85ed03202bf8eb8efe9f6c564cd683c53db54374546b622b2dfc941174f460bfaa132960556c5925aea959cc
1cb2dfc0f3610084502f880bef78c10500970ed94607f13c5865cfdc309b428d3b97375490598ba225323f0eb62600c49a8605cd7e81df30bce255c2b6a2ad30
cdaa385411811e27bfd81d659a09e4b32637e9cac2aa5cea2cecad1ebf804c4b55ae1019063fc52d2a647937ec7b41981f225df01e2556ba58f563e022887117
b74b44c40f2649464b45e9b07c4081532e47b765f62e692810e75f82129250ccd8708d90c2661b71cdd6c3d82d863cfa59af3acd29ebf2ca2f68828730d578f9
e27969a987c986edcb972fa801fe4991af0e804c85ed03202bf8eb8efe9f6c56eff199148c4c8c58eb4217cffa67a77833471eb2d47ff37e894c997ef614397b
11a8835d1bfdf47a71fb5c72d752548500970ed94607f13c5865cfdc309b428d3b97375490598ba225323f0eb62600c49a8605cd7e81df30bce255c2b6a2ad30
3eda7e7046358aaf75963efd3ee34e16b0320154828380204e26894942562954f47a15dc89514f6dad0b6fb86357180409f392a0688e506ce4a4fa266c000a0f
e27969a987c986ed780cc2a2ac39bd56af0e804c85ed03202bf8eb8efe9f6c567f527a684262188d33b38fc9046fcfdbf8f63d8778fe3fbd472acc6a74d136a3
d2bbd7e847d638e1f9160e96a49a6a05e0ab3ae947f45188af477671ba7982f5847d17f193eb0c78cc7c9d0de6402a6f6269f4283b85a83a52e6531a2abf7da8
cdaa385411811e27bfd81d659a09e4b32637e9cac2aa5ceafd49a287c76beca9cf3db11be050388576208e2e508e0c3b35f9ffb4f4477312fd728836e7a224a5
158ceffe8dc50ca838a172f3bee9230cf45310c19b6b8ee5eb4217cffa67a7782a9298a270df33a9db4eaca0532564bb23b782b3d6a37df12323559d0e56b4d8
00145aa26518e5d67fbb3361e4e06191706b807646b80371eb4217cffa67a7786981d64832de0c94749d13634498f34bc9322890ded6647b9ca957f32276dd50
addfbfb716e3ac7f939b2ee8d2bab177644126c9831a96bd59af3acd29ebf2ca69bb7b1dddd5da634c2b31756c9a17f4fc557e70df05651094f98f916b8af8f0
3e2f6d3b6fa1f79e00970ed94607f13c5865cfdc309b428d3b97375490598ba225323f0eb62600c49a8605cd7e81df300d000ae6e7504a91a792a2cd7375c7ea
e27969a987c986ed71b212c801497bacaf0e804c85ed03202bf8eb8efe9f6c561f825f7190989fa52bf8eb8efe9f6c56235a8eb567f6438e856ec50ae477b4c8
74cac55bd50ffe18f1d584d59931918500caba188d4f4140006d362d407033f23c1b981a6632fdfb36e503a94be263c3dcce208e66d5b78e121c49432f96fb03
3eda7e7046358aaf75963efd3ee34e16b0320154828380204e26894942562954f47a15dc89514f6dad0b6fb86357180409f392a0688e506ce4a4fa266c000a0f
00145aa26518e5d6c398299bd5be1a81706b807646b80371eb4217cffa67a778d14fb564405fbe45749d13634498f34bc9322890ded6647b1435ecae900ef823
81fc1ff6897f8ee0c1fb5ea162ffd514e71f71e18758417159af3acd29ebf2ca69bb7b1dddd5da634c2b31756c9a17f4fc557e70df05651094f98f916b8af8f0
e27969a987c986ede268f38cb1206be3af0e804c85ed03202bf8eb8efe9f6c565ab3e1593358140beb4217cffa67a77869c1e80e540456d1894c997ef614397b
b10ba22a8a6197dbaeabb5c77000698d00970ed94607f13c5865cfdc309b428d3b97375490598ba225323f0eb62600c49a8605cd7e81df30bce255c2b6a2ad30
3eda7e7046358aaf75963efd3ee34e16b0320154828380204e26894942562954f47a15dc89514f6dad0b6fb86357180409f392a0688e506ce4a4fa266c000a0f
e27969a987c986edd7a10c6ee254a482af0e804c85ed03202bf8eb8efe9f6c567f4b2480325d87cfbc23143b1b3661d913a936b0e81b24bfbc19e4c12bc8c97a
6baa4c351fc5e3adb045c149b70fbd51f1d584d59931918500caba188d4f4140006d362d407033f23c1b981a6632fdfb36e503a94be263c3bfb54eb10fe3ef8a
cdaa385411811e27bfd81d659a09e4b32637e9cac2aa5ceafd49a287c76beca9cf3db11be050388576208e2e508e0c3b35f9ffb4f4477312fd728836e7a224a5
00145aa26518e5d6f58cd1427a175dee706b807646b80371eb4217cffa67a7781f69f0ec9e1b6921749d13634498f34bc9322890ded6647b615bd8cbdeb5e004
81fc1ff6897f8ee0c1fb5ea162ffd514e71f71e18758417159af3acd29ebf2ca69bb7b1dddd5da634c2b31756c9a17f4fc557e70df05651094f98f916b8af8f0
e27969a987c986ed4f4d8a05cb799cc9af0e804c85ed03202bf8eb8efe9f6c56ba7b2b69f2c87b55eb4217cffa67a778a0368a2f155b8c894f1d947bd0c33d8a
08eb135e841efad838380075bb5248d867606bfcc6bb9c7bcfa7437c6ba53d954031c3cca79d3241e620ab53428ee61fb5829f6b2de829edbea5483e4b69dcf3
cdaa385411811e27bfd81d659a09e4b32637e9cac2aa5cea2cecad1ebf804c4b55ae1019063fc52d744e0a9c7cf098001f225df01e2556ba58f563e022887117
e27969a987c986ed9c2ceb22368ded28af0e804c85ed03202bf8eb8efe9f6c56bdeb30cb77299c5b2bf8eb8efe9f6c5626f30828631f39dfd6154a757fc9b07e
10a05043032e5db7049f20242ab9c88676617f42cd5d956b59af3acd29ebf2ca69bb7b1dddd5da634c2b31756c9a17f4fc557e70df05651094f98f916b8af8f0
1c7432cde066cf95ba5ee84b4ef1eeaf60a188d940e604c11933952b4dcad44ca68ba69006c80e09f1b6bc29d103b9156d913effe3ea9117335cea0ce214a430
e27969a987c986ed4bfda7c2c949c363af0e804c85ed03202bf8eb8efe9f6c5694dbaf5a75412d44eb4217cffa67a778e829a8641dcbd403894c997ef614397b
da702524d1ad2d232f2bd09e50f291d2e0ab3ae947f45188af477671ba7982f5847d17f193eb0c78cc7c9d0de6402a6f6269f4283b85a83a52e6531a2abf7da8
d8fecafda220f3f58dcea2cdd2d3d5cc9783ae8e4821c68f44286f328a01b5597353264ebf8b05510736b9aea252cd5465bd351ff9bed562cc431c9516975695
e27969a987c986ed607b368a9779fb54af0e804c85ed03202bf8eb8efe9f6c5650500360e41c14caeb4217cffa67a77813719ea0a075bdc19632ea6f8c202cea
f6653fa962c409f7524c439ce9b2a9141913dbee39608b11d82468abf7a5627e75963efd3ee34e16b0320154828380204e26894942562954756dacbeca4bc899
fd49a287c76beca9cf3db11be050388576208e2e508e0c3b35f9ffb4f4477312362192728718df14393d5c6c24c977ab9685904a9c6544ed4031e9d426e708e7
e27969a987c986ed15cf179cc99976d6af0e804c85ed03202bf8eb8efe9f6c5626f708db197add257dea318db84afb50ab87d1975755a99f46f71dade540a431
38d847730d715c668dcea2cdd2d3d5cc571415143e3e616859af3acd29ebf2ca69bb7b1dddd5da634c2b31756c9a17f4fc557e70df05651094f98f916b8af8f0
cdaa385411811e27bfd81d659a09e4b32637e9cac2aa5cea2cecad1ebf804c4b55ae1019063fc52d744e0a9c7cf098001f225df01e2556ba58f563e022887117
e27969a987c986edbb675aee90a1719c7dea318db84afb50ca4f336d08ee8093ce256dc3220c5af957f0362ebb7acc76fb6f81569f7aa2e64dd16df578e47cd1
eb4217cffa67a778a1943618832707cf00970ed94607f13c5865cfdc309b428d3b97375490598ba225323f0eb62600c49a8605cd7e81df30bce255c2b6a2ad30
e27969a987c986ed0c1c2d414f0b4266af0e804c85ed03202bf8eb8efe9f6c5676f39ace2816cc8beb4217cffa67a77802576c036c04ff30da0a5821dce6b8c8
f6653fa962c409f7524c439ce9b2a9141913dbee39608b1133b38fc9046fcfdb9ab216740ebaa8164b165e4144316e8c8dcea2cdd2d3d5ccd573267e41263c5c
dd06c2baef735cae2b1410deca799d73f1d584d59931918500caba188d4f4140006d362d407033f23c1b981a6632fdfb36e503a94be263c3bfb54eb10fe3ef8a
4b6085f2012636675a0aa31c52cddba976617f42cd5d956b59af3acd29ebf2ca69bb7b1dddd5da634c2b31756c9a17f4fc557e70df05651094f98f916b8af8f0
e27969a987c986edcdf7767f9b138c50af0e804c85ed03202bf8eb8efe9f6c56ea1c50128cf974b2eb4217cffa67a778a6efa1653bc535f281a4069122952acd
bead309276a4702208eb135e841efad88318958aa75d45564651b4c215cbe2b1f448aa8b445158d3b0d130b91dfdd8608ee5eab1ce21437bd95e0d6418284b60
e27969a987c986ed72da40009114631faf0e804c85ed03202bf8eb8efe9f6c565a2fccc73cf7019958b7947fe738b599eb4217cffa67a77897e6b594dfeade00
e1a42c01cdce73597537b1a633d6c4bcd065b3ae9ddc5f25160b95136885866a557f7897f93f3f023ea0b7be3a0c74282bc4e5c6b5d22aa3d0a2ab4ebf8f8ec0
df8f9e8caf681eff8dcea2cdd2d3d5cc9783ae8e4821c68f44286f328a01b5597353264ebf8b05510736b9aea252cd5465bd351ff9bed562cc431c9516975695
e27969a987c986ed269f227fde459d49af0e804c85ed03202bf8eb8efe9f6c561d875a88cc5fe793da6dbf46161ff4ff21215d38c56d90bc8bce65d7c9cffe13
457bdeb3cfee4e23b045c149b70fbd51f1d584d59931918500caba188d4f4140006d362d407033f23c1b981a6632fdfb36e503a94be263c3bfb54eb10fe3ef8a
cdaa385411811e27bfd81d659a09e4b32637e9cac2aa5ceafd49a287c76beca9cf3db11be050388576208e2e508e0c3b35f9ffb4f4477312fd728836e7a224a5
e27969a987c986ed28efc83577310e99af0e804c85ed03202bf8eb8efe9f6c56ea118acffeb7cc52eb4217cffa67a77831f622e58f7b32e0894c997ef614397b
e242e609411592ea4535de91e95bb6ff1f225df01e2556ba620ebef4ba9171e0a5de76bd8a6d778dc39dd42068b2d2036c1d4a04768a98bba0c4de655f6be23f
f6653fa962c409f7562ed471333c5beceb4217cffa67a778e81788dcdc922d2ed7c854517f40f0a6c3718dc3f43c3b6828b7302b26999e6f50794576b4f63d0d
5e907deffd12c5ffdd06c2baef735cae36806a8e381bf9a059af3acd29ebf2ca69bb7b1dddd5da634c2b31756c9a17f4fc557e70df05651094f98f916b8af8f0
8767f397bff4c3a731bbfa71d5efb6fe102372497787b35cf1d584d59931918500caba188d4f4140006d362d407033f23c1b981a6632fdfbd09c9da765119a27
e27969a987c986ed2eb16f53117a021eaf0e804c85ed03202bf8eb8efe9f6c56ea1c50128cf974b255c206e628db897a58b7947fe738b599284f9e497738dee4
7b95f2b1bc0ef83e67606bfcc6bb9c7bcfa7437c6ba53d954031c3cca79d3241e620ab53428ee61fb5829f6b2de829edbc517b6f1c7727ed52f03432b74202af
f6653fa962c409f7409f5c05040c66f3646392a600def528eb4217cffa67a778409ff5acf54f2c65f2fcabb6a3afb27160a188d940e604c1ecf22f43cd602b91
44286f328a01b55967d2eff95da5627476208e2e508e0c3b35f9ffb4f4477312362192728718df14393d5c6c24c977ab9685904a9c6544ed4031e9d426e708e7
4b6085f2012636675a0aa31c52cddba976617f42cd5d956b59af3acd29ebf2ca69bb7b1dddd5da634c2b31756c9a17f4fc557e70df05651094f98f916b8af8f0
158ceffe8dc50ca860ca024859e6cd39f45310c19b6b8ee5eb4217cffa67a7781ac1877af3c1fc43db4eaca0532564bb23b782b3d6a37df12323559d0e56b4d8
e27969a987c986ed2a8bf9ebc6d7edbc2e47b765f62e692813a936b0e81b24bf8d47fdbb4a8be0332bf8eb8efe9f6c56079615c1be73d1089b902e4ddb0ef2bb
e27969a987c986ede0611609af075bf5af0e804c85ed03202bf8eb8efe9f6c569f00fadc9516fb29071fad754e25470d13a936b0e81b24bfa68d8930f677bae7
6baa4c351fc5e3adb045c149b70fbd51f1d584d59931918500caba188d4f4140006d362d407033f23c1b981a6632fdfb36e503a94be263c3bfb54eb10fe3ef8a
cdaa385411811e27bfd81d659a09e4b32637e9cac2aa5ceafd49a287c76beca9cf3db11be050388576208e2e508e0c3b35f9ffb4f4477312fd728836e7a224a5
e27969a987c986ed2376c088fa55b18a2e47b765f62e692813a936b0e81b24bf8d47fdbb4a8be0332bf8eb8efe9f6c56ceda87f6986c8381e4e72beed32b1f99
5911b2e9db27761795d7fcca0b5012cc00970ed94607f13c5865cfdc309b428d3b97375490598ba225323f0eb62600c49a8605cd7e81df30bce255c2b6a2ad30
bbf0a766f49a242c2637e9cac2aa5cea2cecad1ebf804c4bf467148f06ca8e43e0ab3ae947f45188af477671ba7982f5847d17f193eb0c78689bcfb2424a2c0d
e27969a987c986edfa5a486a27332d1faf0e804c85ed03202bf8eb8efe9f6c566a3cdd546376db64e150287c32780139d4fbf92d53dfc8f3af30962ad8ac452c
2ff35ad348e9f1fe8dcea2cdd2d3d5cc571415143e3e616859af3acd29ebf2ca69bb7b1dddd5da634c2b31756c9a17f4fc557e70df05651094f98f916b8af8f0
cdaa385411811e27bfd81d659a09e4b32637e9cac2aa5ceafd49a287c76beca9cf3db11be050388576208e2e508e0c3b35f9ffb4f4477312fd728836e7a224a5
e27969a987c986eded7d34ab61644ef8af0e804c85ed03202bf8eb8efe9f6c5607ccb1bf2716f5d9eb4217cffa67a778be4bc4956d1a6e90894c997ef614397b
bde2202a2758c8494c0d3ca20151009d1f225df01e2556ba620ebef4ba9171e0a5de76bd8a6d778dc39dd42068b2d2036c1d4a04768a98bba0c4de655f6be23f
3eda7e7046358aaf75963efd3ee34e16b0320154828380204e26894942562954f47a15dc89514f6dad0b6fb86357180409f392a0688e506ce4a4fa266c000a0f
287bddcce64bc3f7415802acaf2c8223cd9f9b0fe66d8ad1c06975fc74ac1c6faf4b5300e6a1dfed2bf8eb8efe9f6c5600f645addabdb7a72bdc2471723c531b
32cd76a2a36328a9eb4217cffa67a778c6f18f49832640f09eb51823cf4a3be16bf8a7b9c5195246b5f1c17ee7956303e0ab3ae947f451884fbd5ca7d890d3a0
e27969a987c986ed27122208a7d730a4af0e804c85ed03202bf8eb8efe9f6c5626f30828631f39df2bf8eb8efe9f6c561d875a88cc5fe793073e8a4dc49b83ea
9c99a6f8ecce348375963efd3ee34e167537b1a633d6c4bcd065b3ae9ddc5f25160b95136885866a557f7897f93f3f023ea0b7be3a0c7428a0ae1ec44e6db05e
cdaa385411811e27bfd81d659a09e4b32637e9cac2aa5cea2cecad1ebf804c4b55ae1019063fc52d0e4bd06ebfb685f076208e2e508e0c3b4681b083f4c7cbcc
e27969a987c986ed87e0fff554162aefaf0e804c85ed03202bf8eb8efe9f6c56fa570e87f2074df6eb4217cffa67a778c9614e4c9e7c368c1b1e98553ffda303
4a7d66a7893a1289cf19acf13dcaf3f076208e2e508e0c3b35f9ffb4f4477312362192728718df14393d5c6c24c977ab9685904a9c6544ed4031e9d426e708e7
f6653fa962c409f7b10ba22a8a6197dbb09c0250b900af7cfbdc8272ff83ce6475963efd3ee34e16b0320154828380204e26894942562954756dacbeca4bc899
fd49a287c76beca9cf3db11be050388576208e2e508e0c3b35f9ffb4f4477312362192728718df14393d5c6c24c977ab9685904a9c6544ed4031e9d426e708e7
e27969a987c986edfba1c3471132fd29af0e804c85ed03202bf8eb8efe9f6c56bfb45625cd7499fb33b38fc9046fcfdb3e57b33bbd27cceca729f07c840ab502
d2bbd7e847d638e1f9160e96a49a6a05e0ab3ae947f45188af477671ba7982f5847d17f193eb0c78cc7c9d0de6402a6f6269f4283b85a83a52e6531a2abf7da8
cdaa385411811e27bfd81d659a09e4b32637e9cac2aa5ceafd49a287c76beca9cf3db11be050388576208e2e508e0c3b35f9ffb4f4477312fd728836e7a224a5
e27969a987c986ed946cc473c922df58af0e804c85ed03202bf8eb8efe9f6c56b615b9f381104bbdeb4217cffa67a77813719ea0a075bdc1d3b55e518a88efc0
f6653fa962c409f7d5a6e07823b45a2e1913dbee39608b11d82468abf7a5627e75963efd3ee34e16b0320154828380204e26894942562954756dacbeca4bc899
fd49a287c76beca9cf3db11be050388576208e2e508e0c3b35f9ffb4f4477312362192728718df14393d5c6c24c977ab9685904a9c6544ed4031e9d426e708e7
e27969a987c986edd94d11989b0bb5eeaf0e804c85ed03202bf8eb8efe9f6c56ee94776f421864f07dea318db84afb501a490b80ab3ee8507398c98f591c8a97
8dcea2cdd2d3d5cc9783ae8e4821c68fbaa78b47fb353ab359af3acd29ebf2ca69bb7b1dddd5da634c2b31756c9a17f4fc557e70df05651094f98f916b8af8f0
bbf0a766f49a242c2637e9cac2aa5ceafd49a287c76beca9cf3db11be050388576208e2e508e0c3b35f9ffb4f4477312362192728718df14782fb6ed9ab4551d
e27969a987c986edcce2288dd6a00ef8af0e804c85ed03202bf8eb8efe9f6c5607ccb1bf2716f5d9eb4217cffa67a778d23904de8aee1cfe81a4069122952acd
bead309276a4702208eb135e841efad88318958aa75d45564651b4c215cbe2b1f448aa8b445158d3b0d130b91dfdd8608ee5eab1ce21437bd95e0d6418284b60
e27969a987c986ed7c4539964b3e04a4af0e804c85ed03202bf8eb8efe9f6c561f825f7190989fa52bf8eb8efe9f6c56795f0335b448ef73284f9e497738dee4
12416c2124443ad5d501969d826da608e0ab3ae947f45188af477671ba7982f5847d17f193eb0c78cc7c9d0de6402a6f6269f4283b85a83a52e6531a2abf7da8
3eda7e7046358aaf75963efd3ee34e16b0320154828380204e26894942562954f47a15dc89514f6dad0b6fb86357180409f392a0688e506ce4a4fa266c000a0f
e27969a987c986ed265db86928a9db10af0e804c85ed03202bf8eb8efe9f6c561f825f7190989fa52bf8eb8efe9f6c56abb6ca6a4cca097f856ec50ae477b4c8
ef2eb66ec6c14247f1d584d59931918500caba188d4f4140006d362d407033f23c1b981a6632fdfb36e503a94be263c3dcce208e66d5b78e121c49432f96fb03
3eda7e7046358aaf75963efd3ee34e16b0320154828380204e26894942562954f47a15dc89514f6dad0b6fb86357180409f392a0688e506ce4a4fa266c000a0f
e27969a987c986ede1a51f1b48551a4baf0e804c85ed03202bf8eb8efe9f6c569f00fadc9516fb296118deaef08fc695eb4217cffa67a77873fa54702bcb4b75
df2a144655f4aa1d7b95f2b1bc0ef83e67606bfcc6bb9c7bcfa7437c6ba53d954031c3cca79d3241e620ab53428ee61fb5829f6b2de829edbea5483e4b69dcf3
f6653fa962c409f7d89086cd27ae3b0525e9034e2de143f19aa78b684959281e2cbe1f57640011b38229fb25bd43b6425e907deffd12c5fff9224a01a31d483a
b31205aa407e75cde847dda77d5f944359af3acd29ebf2ca69bb7b1dddd5da634c2b31756c9a17f4fc557e70df0565104e5b7f9d61868645dc84ebe1f990a8fa
4b6085f2012636675a0aa31c52cddba976617f42cd5d956b59af3acd29ebf2ca69bb7b1dddd5da634c2b31756c9a17f4fc557e70df05651094f98f916b8af8f0
e27969a987c986ed89f79c711184dde2af0e804c85ed03202bf8eb8efe9f6c568a68c8d62936f1b3071fad754e25470d13a936b0e81b24bf64ce0dfbc7e858f3
6baa4c351fc5e3adb045c149b70fbd51f1d584d59931918500caba188d4f4140006d362d407033f23c1b981a6632fdfb36e503a94be263c3bfb54eb10fe3ef8a
cdaa385411811e27bfd81d659a09e4b32637e9cac2aa5ceafd49a287c76beca9cf3db11be050388576208e2e508e0c3b35f9ffb4f4477312fd728836e7a224a5
e27969a987c986ed528e1cc22fc1669daf0e804c85ed03202bf8eb8efe9f6c566417678f9898b29ae150287c32780139d4fbf92d53dfc8f3af30962ad8ac452c
4465bc885958eb558dcea2cdd2d3d5cc571415143e3e616859af3acd29ebf2ca69bb7b1dddd5da634c2b31756c9a17f4fc557e70df05651094f98f916b8af8f0
cdaa385411811e27bfd81d659a09e4b32637e9cac2aa5ceafd49a287c76beca9cf3db11be050388576208e2e508e0c3b35f9ffb4f4477312fd728836e7a224a5
b74b44c40f2649463448397da1776e372e47b765f62e692813a936b0e81b24bf8e5405729ed5dc2199bbf488c037c99c76208e2e508e0c3b4681b083f4c7cbcc
e27969a987c986ed25aad6477b0d444d2e47b765f62e692861fff00cfe62b0dc4631ae0ba0643bbf6e94510d1d13ab8c79b8cfd8cd835b1a8d131368012f00db
b32eae440ae09a4785ca69fda8cf338a76208e2e508e0c3b35f9ffb4f4477312362192728718df14393d5c6c24c977ab9685904a9c6544ed4031e9d426e708e7
cdaa385411811e27bfd81d659a09e4b32637e9cac2aa5ceafd49a287c76beca9cf3db11be050388576208e2e508e0c3b35f9ffb4f4477312fd728836e7a224a5
e27969a987c986ed0f5c2a53cde0a6eeaf0e804c85ed03202bf8eb8efe9f6c5601b5d771ab8898327dea318db84afb50b1177528b153b9ff1885f06bd19a4517
63629bfc185738257537b1a633d6c4bcd065b3ae9ddc5f25160b95136885866a557f7897f93f3f023ea0b7be3a0c74282bc4e5c6b5d22aa3d0a2ab4ebf8f8ec0
8d7bfdbb8cf7c1eb75963efd3ee34e16b0320154828380204e26894942562954f47a15dc89514f6dad0b6fb86357180409f392a0688e506ce4a4fa266c000a0f
e27969a987c986edf9c231eb72616869af0e804c85ed03202bf8eb8efe9f6c561e172647d3c931162bf8eb8efe9f6c5626f30828631f39dfd6154a757fc9b07e
035b5e0742ef3a745045be96efc148ff36a8238a25b7227959af3acd29ebf2ca69bb7b1dddd5da634c2b31756c9a17f4fc557e70df05651094f98f916b8af8f0
1c7432cde066cf95ba5ee84b4ef1eeaf60a188d940e604c11933952b4dcad44ca68ba69006c80e09f1b6bc29d103b9156d913effe3ea9117335cea0ce214a430
e27969a987c986edce43ae00c178e703af0e804c85ed03202bf8eb8efe9f6c569abb7722e22a30e7a90aa6669b77ae272c2b7c162fd5383e016162942101dcb0
b32eae440ae09a4785ca69fda8cf338a76208e2e508e0c3b35f9ffb4f4477312362192728718df14393d5c6c24c977ab9685904a9c6544ed4031e9d426e708e7
cdaa385411811e27bfd81d659a09e4b32637e9cac2aa5ceafd49a287c76beca9cf3db11be050388576208e2e508e0c3b35f9ffb4f4477312fd728836e7a224a5
e27969a987c986edbb8b08dadfa2f045af0e804c85ed03202bf8eb8efe9f6c56d9e4abd33be8be5feb4217cffa67a7787607f1d732d6b7d8264af0a795caeb38
60a188d940e604c16594e2ecfdcb7f14f1d584d59931918500caba188d4f4140006d362d407033f23c1b981a6632fdfb36e503a94be263c3bfb54eb10fe3ef8a
bbf0a766f49a242c2637e9cac2aa5cea2cecad1ebf804c4bf467148f06ca8e43e0ab3ae947f45188af477671ba7982f5847d17f193eb0c78689bcfb2424a2c0d
e27969a987c986ed8eed8ae019b78701af0e804c85ed03202bf8eb8efe9f6c568a68c8d62936f1b354d3eff97340600aeb4217cffa67a7785e6d5e1fefb41810
290930c08fbbe9267b95f2b1bc0ef83e67606bfcc6bb9c7bcfa7437c6ba53d954031c3cca79d3241e620ab53428ee61fb5829f6b2de829edbea5483e4b69dcf3
f6653fa962c409f7b3e173b3132e6abaae2c4532aa8f216b9aa78b684959281e2cbe1f57640011b38229fb25bd43b6425e907deffd12c5fff9224a01a31d483a
b31205aa407e75cde847dda77d5f944359af3acd29ebf2ca69bb7b1dddd5da634c2b31756c9a17f4fc557e70df0565104e5b7f9d61868645dc84ebe1f990a8fa
4b6085f2012636675a0aa31c52cddba976617f42cd5d956b59af3acd29ebf2ca69bb7b1dddd5da634c2b31756c9a17f4fc557e70df05651094f98f916b8af8f0
287bddcce64bc3f7415802acaf2c8223239bdbe658d21d00c06975fc74ac1c6fb2ca04e3843d494a8060bd188a33918a1032077b6bddc8bf1c1b70b2e4673969
dad4bb70f534f24c76208e2e508e0c3b35f9ffb4f4477312362192728718df14393d5c6c24c977ab9685904a9c6544eda412d45228ea01a3d75a2fc16494908f
32cd76a2a36328a9eb4217cffa67a778d3f469f75f049be07c10ac95f49c8dc5edac2a0962569cb5b5f1c17ee7956303e0ab3ae947f451884fbd5ca7d890d3a0
e27969a987c986ed8e272f3e69c80939957673035b26e32b881efb4c18e6f4eeeb4217cffa67a77869c3eda1355ff0f6726d9a7f6b37359c450139be464a895d
b032015482838020d2208d979160a90267606bfcc6bb9c7bcfa7437c6ba53d954031c3cca79d3241e620ab53428ee61fb5829f6b2de829edbea5483e4b69dcf3
8767f397bff4c3a731bbfa71d5efb6fe102372497787b35cf1d584d59931918500caba188d4f4140006d362d407033f23c1b981a6632fdfbd09c9da765119a27
e27969a987c986ed8b489f2df4de583faf0e804c85ed03202bf8eb8efe9f6c56d4b01f1e12395a8feb4217cffa67a77858af5bbd2272ee6e894c997ef614397b
b10ba22a8a6197db27140e5ec5b147c600970ed94607f13c5865cfdc309b428d3b97375490598ba225323f0eb62600c49a8605cd7e81df30bce255c2b6a2ad30
3eda7e7046358aaf75963efd3ee34e16b0320154828380204e26894942562954f47a15dc89514f6dad0b6fb86357180409f392a0688e506ce4a4fa266c000a0f
e27969a987c986edb6d0587ed880d4f42e47b765f62e692813a936b0e81b24bf3114accdd03502a32bf8eb8efe9f6c56661f7b6a0d2afa2e4c3d33b9e8f41263
c2a465b43e329fccf60ecfe3dff4fab21f225df01e2556ba620ebef4ba9171e0a5de76bd8a6d778dc39dd42068b2d2036c1d4a04768a98bba0c4de655f6be23f
cdaa385411811e27bfd81d659a09e4b32637e9cac2aa5cea2cecad1ebf804c4b55ae1019063fc52d4729a4737634258676208e2e508e0c3b4681b083f4c7cbcc
e27969a987c986ed43501d3c4d34a1d3af0e804c85ed03202bf8eb8efe9f6c561d875a88cc5fe793da6dbf46161ff4ff2591c43e4acf6f962366329be8d65030
13a936b0e81b24bf604edd8a0ca9a82f67606bfcc6bb9c7bcfa7437c6ba53d954031c3cca79d3241e620ab53428ee61fb5829f6b2de829edbea5483e4b69dcf3
f6653fa962c409f71032077b6bddc8bf808596fe361262747b6759d979487a7075963efd3ee34e16b0320154828380204e26894942562954756dacbeca4bc899
2cecad1ebf804c4bf467148f06ca8e43e0ab3ae947f45188af477671ba7982f5847d17f193eb0c78cc7c9d0de6402a6f6269f4283b85a83a52e6531a2abf7da8
e27969a987c986edc6f53a17f684ceb1af0e804c85ed03202bf8eb8efe9f6c56fe1311270838f5ee2aea58fcad89faaec7067a7f86a09542a381e0948e681c7f
8c42becd8ed5047267606bfcc6bb9c7bcfa7437c6ba53d954031c3cca79d3241e620ab53428ee61fb5829f6b2de829edbc517b6f1c7727ed52f03432b74202af
df8f9e8caf681eff8dcea2cdd2d3d5cc9783ae8e4821c68f44286f328a01b5597353264ebf8b05510736b9aea252cd5465bd351ff9bed562cc431c9516975695
e27969a987c986ed0bdbbacc11f46e862fbfcc2b872ff9464465c9d7e7f53ee44fd86f0a5367d8b07dea318db84afb50deb9dfe6a546e55c3f5d687058f80003
5314e44f8dbca9aaf60ecfe3dff4fab21f225df01e2556ba620ebef4ba9171e0a5de76bd8a6d778dc39dd42068b2d2036c1d4a04768a98bba0c4de655f6be23f
cdaa385411811e27bfd81d659a09e4b32637e9cac2aa5ceafd49a287c76beca9cf3db11be050388576208e2e508e0c3b35f9ffb4f4477312fd728836e7a224a5
e27969a987c986ed89e2fa3aa0038c6f2e47b765f62e692813a936b0e81b24bf32ae7a97d23bf52da85c68f10aad87d22bf8eb8efe9f6c560256dc7e1c11eec9
eb4217cffa67a778db3fd172a06bb38100970ed94607f13c5865cfdc309b428d3b97375490598ba225323f0eb62600c49a8605cd7e81df30bce255c2b6a2ad30
f6653fa962c409f76ef0b1ed4f84cbab7dea318db84afb5036b0b21d909cfd0c76273344e77cb66575963efd3ee34e16b032015482838020199902ef25e0ffab
d24b51ea77d6888867606bfcc6bb9c7bcfa7437c6ba53d954031c3cca79d3241e620ab53428ee61fb5829f6b2de829edbc517b6f1c7727ed52f03432b74202af
4b6085f2012636675a0aa31c52cddba976617f42cd5d956b59af3acd29ebf2ca69bb7b1dddd5da634c2b31756c9a17f4fc557e70df05651094f98f916b8af8f0
e27969a987c986ed7d115dd2e28f0be6af0e804c85ed03202bf8eb8efe9f6c565518bd7c1e18c579371c37f8309a03142bf8eb8efe9f6c5677456bdf66d6c198
740420d8a1a69f7275963efd3ee34e167537b1a633d6c4bcd065b3ae9ddc5f25160b95136885866a557f7897f93f3f023ea0b7be3a0c7428a0ae1ec44e6db05e
cdaa385411811e27bfd81d659a09e4b32637e9cac2aa5ceafd49a287c76beca9cf3db11be050388576208e2e508e0c3b35f9ffb4f4477312fd728836e7a224a5
e27969a987c986ed1947afe1f542262faf0e804c85ed03202bf8eb8efe9f6c569abb7722e22a30e7dbbf01988fbe3287eb4217cffa67a77802d12e454a5c8183
7dea318db84afb50e515ba7f816afbe876208e2e508e0c3b35f9ffb4f4477312362192728718df14393d5c6c24c977ab9685904a9c6544ed4031e9d426e708e7
f6653fa962c409f7bde2202a2758c8494ee619f3ed14252f9aa78b684959281e2cbe1f57640011b38229fb25bd43b6425e907deffd12c5fff9224a01a31d483a
b31205aa407e75cde847dda77d5f944359af3acd29ebf2ca69bb7b1dddd5da634c2b31756c9a17f4fc557e70df0565104e5b7f9d61868645dc84ebe1f990a8fa
4b6085f2012636675a0aa31c52cddba976617f42cd5d956b59af3acd29ebf2ca69bb7b1dddd5da634c2b31756c9a17f4fc557e70df05651094f98f916b8af8f0
e27969a987c986ed0c2147605dca6aa071b030764cded675f848f4e4b52fe39b7dea318db84afb50fa4be6afa135258d6e0c7d99c454cfb76c22f8338c178f33
9783ae8e4821c68fa223a4da0518f3d6f1d584d59931918500caba188d4f4140006d362d407033f23c1b981a6632fdfb36e503a94be263c3bfb54eb10fe3ef8a
8767f397bff4c3a731bbfa71d5efb6fe102372497787b35cf1d584d59931918500caba188d4f4140006d362d407033f23c1b981a6632fdfbd09c9da765119a27
e27969a987c986edaa2a606802d289c92fbfcc2b872ff9464465c9d7e7f53ee44fd86f0a5367d8b07dea318db84afb508572b6065f114e7ee32550b6177db376
5314e44f8dbca9aaf60ecfe3dff4fab21f225df01e2556ba620ebef4ba9171e0a5de76bd8a6d778dc39dd42068b2d2036c1d4a04768a98bba0c4de655f6be23f
cdaa385411811e27bfd81d659a09e4b32637e9cac2aa5ceafd49a287c76beca9cf3db11be050388576208e2e508e0c3b35f9ffb4f4477312fd728836e7a224a5
e27969a987c986ed1ebd60b55f063ac6af0e804c85ed03202bf8eb8efe9f6c56bfb45625cd7499fb14a13aec5be2f6cedf2a144655f4aa1d140e7af0e4735b59
cbbb6e56c2b018817537b1a633d6c4bcd065b3ae9ddc5f25160b95136885866a557f7897f93f3f023ea0b7be3a0c74282bc4e5c6b5d22aa3d0a2ab4ebf8f8ec0
df8f9e8caf681eff8dcea2cdd2d3d5cc9783ae8e4821c68f44286f328a01b5597353264ebf8b05510736b9aea252cd5465bd351ff9bed562cc431c9516975695
e27969a987c986edfefa4b5d771dac7daf0e804c85ed03202bf8eb8efe9f6c56235a8eb567f6438e61fff00cfe62b0dcc1499a51f872708f4dd16df578e47cd1
b382a40c542e440ff1d584d59931918500caba188d4f4140006d362d407033f23c1b981a6632fdfb36e503a94be263c3dcce208e66d5b78e121c49432f96fb03
3eda7e7046358aaf75963efd3ee34e16b0320154828380204e26894942562954f47a15dc89514f6dad0b6fb86357180409f392a0688e506ce4a4fa266c000a0f
e27969a987c986edfabdb1953c756df22e47b765f62e692861fff00cfe62b0dc4728fa042957bfe0cc9ac10020accfc239bb583c0e72afd1e4e72beed32b1f99
5911b2e9db27761795d7fcca0b5012cc00970ed94607f13c5865cfdc309b428d3b97375490598ba225323f0eb62600c49a8605cd7e81df30bce255c2b6a2ad30
bbf0a766f49a242c2637e9cac2aa5ceafd49a287c76beca9cf3db11be050388576208e2e508e0c3b35f9ffb4f4477312362192728718df14782fb6ed9ab4551d
e27969a987c986ed529839b2631e0b2faf0e804c85ed03202bf8eb8efe9f6c563047c2d5e7558257eb4217cffa67a778b5fdc0d2b1445ea6894c997ef614397b
2591c43e4acf6f9662ac7c37ec975c061f225df01e2556ba620ebef4ba9171e0a5de76bd8a6d778dc39dd42068b2d2036c1d4a04768a98bba0c4de655f6be23f
3eda7e7046358aaf75963efd3ee34e16b0320154828380204e26894942562954f47a15dc89514f6dad0b6fb86357180409f392a0688e506ce4a4fa266c000a0f
e27969a987c986ed16e3318c57a0d81caf0e804c85ed03202bf8eb8efe9f6c5607ccb1bf2716f5d918cf7d06e26e06d05d58b140140e2f22284f9e497738dee4
7b95f2b1bc0ef83e67606bfcc6bb9c7bcfa7437c6ba53d954031c3cca79d3241e620ab53428ee61fb5829f6b2de829edbc517b6f1c7727ed52f03432b74202af
f6653fa962c409f7409f5c05040c66f37bc7c6419b41705aeb4217cffa67a778409ff5acf54f2c65f2fcabb6a3afb27160a188d940e604c1ecf22f43cd602b91
44286f328a01b55967d2eff95da5627476208e2e508e0c3b35f9ffb4f4477312362192728718df14393d5c6c24c977ab9685904a9c6544ed4031e9d426e708e7
4b6085f2012636675a0aa31c52cddba976617f42cd5d956b59af3acd29ebf2ca69bb7b1dddd5da634c2b31756c9a17f4fc557e70df05651094f98f916b8af8f0
b74b44c40f264946e7137cd0084de67a2e47b765f62e692810e75f82129250cce5ca20fa09e26871cdd6c3d82d863cfa59af3acd29ebf2ca2f68828730d578f9
e27969a987c986eddd69bc305a0b1a35af0e804c85ed03202bf8eb8efe9f6c5626f30828631f39df2bf8eb8efe9f6c561d875a88cc5fe793d1a591eedd733e62
852d6c1f6c4909a6b950d782eac521e77537b1a633d6c4bcd065b3ae9ddc5f25160b95136885866a557f7897f93f3f023ea0b7be3a0c7428a0ae1ec44e6db05e
d8fecafda220f3f58dcea2cdd2d3d5cc9783ae8e4821c68f44286f328a01b5597353264ebf8b05510736b9aea252cd5465bd351ff9bed562cc431c9516975695
e27969a987c986ed2e8e2b213ef07dacaf0e804c85ed03202bf8eb8efe9f6c56d9e4abd33be8be5feb4217cffa67a778184f33e8170464e4fb29a7185806a2f1
ac33933d9d644d8567606bfcc6bb9c7bcfa7437c6ba53d954031c3cca79d3241e620ab53428ee61fb5829f6b2de829edbc517b6f1c7727ed52f03432b74202af
e27969a987c986ed853fcf683f6c8c8a7dea318db84afb5019e06f1d34ba078e7a50691fb05645802c2b7c162fd5383e4ba86ad685712dc24dd16df578e47cd1
eb4217cffa67a778b270b53054ba30ba00970ed94607f13c5865cfdc309b428d3b97375490598ba225323f0eb62600c49a8605cd7e81df30bce255c2b6a2ad30
e27969a987c986ed804f5500d8b60893af0e804c85ed03202bf8eb8efe9f6c5601b5d771ab8898327dea318db84afb50ab87d1975755a99fd6e3f127e1438baa
38d847730d715c668dcea2cdd2d3d5cc571415143e3e616859af3acd29ebf2ca69bb7b1dddd5da634c2b31756c9a17f4fc557e70df05651094f98f916b8af8f0
cdaa385411811e27bfd81d659a09e4b32637e9cac2aa5cea2cecad1ebf804c4b55ae1019063fc52d744e0a9c7cf098001f225df01e2556ba58f563e022887117
e27969a987c986ed1eaaa964dd0bfe5207226801c6c72721286b918fdc1243f1c4f03abe783ab1ee33f3988d05b8294ebde08a11838641a750794576b4f63d0d
5e907deffd12c5ffdd06c2baef735cae36806a8e381bf9a059af3acd29ebf2ca69bb7b1dddd5da634c2b31756c9a17f4fc557e70df05651094f98f916b8af8f0