Version 4
SHEET 1 1600 680
WIRE 224 -32 -368 -32
WIRE 528 -32 224 -32
WIRE 624 -32 528 -32
WIRE 720 -32 624 -32
WIRE 816 -32 720 -32
WIRE 944 -32 816 -32
WIRE 624 0 624 -32
WIRE 944 0 944 -32
WIRE 480 16 0 16
WIRE 544 16 480 16
WIRE 720 16 720 -32
WIRE 816 16 816 -32
WIRE 224 48 224 -32
WIRE -368 80 -368 -32
WIRE 0 112 0 16
WIRE 64 112 0 112
WIRE 432 112 384 112
WIRE 496 112 432 112
WIRE 544 112 544 16
WIRE 624 112 624 80
WIRE 624 112 544 112
WIRE 720 112 720 80
WIRE 720 112 624 112
WIRE 816 112 816 80
WIRE 944 112 944 80
WIRE 944 112 816 112
WIRE 816 128 816 112
WIRE -368 192 -368 160
WIRE -288 192 -368 192
WIRE -160 192 -224 192
WIRE 64 192 -160 192
WIRE 544 192 384 192
WIRE 576 192 544 192
WIRE -160 224 -160 192
WIRE -368 272 -368 192
WIRE 0 272 -64 272
WIRE 64 272 0 272
WIRE 432 272 432 176
WIRE 432 272 384 272
WIRE 496 272 496 176
WIRE 496 272 432 272
WIRE 560 272 496 272
WIRE 624 272 624 208
WIRE 624 272 560 272
WIRE 672 272 624 272
WIRE 800 272 752 272
WIRE 896 272 800 272
WIRE 944 272 896 272
WIRE 1008 272 944 272
WIRE 1184 272 1008 272
WIRE -64 288 -64 272
WIRE 1008 288 1008 272
WIRE -160 320 -160 288
WIRE 624 336 624 272
WIRE 800 336 800 272
WIRE 896 336 896 272
WIRE 1184 336 1184 272
WIRE 224 384 224 336
WIRE 1008 384 1008 368
WIRE 1104 384 1008 384
WIRE -368 432 -368 336
WIRE -160 432 -160 400
WIRE -160 432 -368 432
WIRE -64 432 -64 352
WIRE -64 432 -160 432
WIRE -64 464 -64 432
WIRE 624 480 624 400
WIRE 800 480 800 400
WIRE 800 480 624 480
WIRE 896 480 896 400
WIRE 896 480 800 480
WIRE 1008 480 1008 464
WIRE 1008 480 896 480
WIRE 1184 480 1184 416
WIRE 1184 480 1008 480
WIRE 800 512 800 480
WIRE 0 544 0 272
WIRE 1104 544 1104 384
WIRE 1104 544 0 544
FLAG 224 384 0
FLAG 816 128 0
FLAG 800 512 0
FLAG -64 464 0
FLAG 528 -32 vi
FLAG 560 272 vsw
FLAG 944 272 vo
FLAG 544 192 vdrv
FLAG 480 16 vsense
SYMBOL PowerProducts\\LTC1624 224 192 R0
SYMATTR InstName U1
SYMBOL ind 656 288 R270
WINDOW 0 32 56 VTop 2
WINDOW 3 5 56 VBottom 2
SYMATTR InstName L1
SYMATTR Value 47µ
SYMATTR SpiceLine Ipk=8.7
SYMBOL res 608 -16 R0
SYMATTR InstName R1
SYMATTR Value 12m
SYMATTR SpiceLine tol=20
SYMBOL res 992 272 R0
SYMATTR InstName R2
SYMATTR Value 18k
SYMATTR SpiceLine tol=20
SYMBOL res 992 368 R0
SYMATTR InstName R3
SYMATTR Value 5.6k
SYMATTR SpiceLine tol=20
SYMBOL cap 800 16 R0
SYMATTR InstName C1
SYMATTR Value 82µF
SYMBOL cap 784 336 R0
SYMATTR InstName C2
SYMATTR Value 1200µ
SYMATTR SpiceLine V=16 Rser=60m
SYMBOL nmos 576 112 R0
SYMATTR InstName M1
SYMATTR Value irf7470
SYMATTR Prefix X
SYMBOL diode 640 400 R180
WINDOW 0 24 64 Left 2
WINDOW 3 24 0 Left 2
SYMATTR InstName D1
SYMATTR Value MBRB1045
SYMBOL voltage 944 -16 R0
WINDOW 123 0 0 Left 0
WINDOW 39 24 124 Left 2
SYMATTR InstName V1
SYMATTR Value 12
SYMATTR SpiceLine Rser=0
SYMBOL cap 880 336 R0
SYMATTR InstName C3
SYMATTR Value 1200µ
SYMATTR SpiceLine V=16 Rser=60m
SYMBOL cap 480 112 R0
SYMATTR InstName C4
SYMATTR Value 0.1µ
SYMATTR SpiceLine V=50
SYMBOL cap 416 112 R0
SYMATTR InstName C5
SYMATTR Value 0.1µ
SYMATTR SpiceLine V=50
SYMBOL cap 704 16 R0
SYMATTR InstName C6
SYMATTR Value 1n
SYMATTR SpiceLine V=50
SYMBOL cap -80 288 R0
SYMATTR InstName C7
SYMATTR Value 1n
SYMATTR SpiceLine V=50
SYMBOL cap -176 224 R0
SYMATTR InstName C8
SYMATTR Value 1n
SYMBOL res -176 304 R0
SYMATTR InstName R4
SYMATTR Value 5.6k
SYMBOL current 1184 336 R0
WINDOW 123 24 108 Left 2
WINDOW 39 0 0 Left 0
SYMATTR InstName I1
SYMATTR Value PULSE(2 8 50m 1n 1n 10m 20m)
SYMATTR Value2 AC 0.01
SYMBOL diode -224 176 R90
WINDOW 0 0 32 VBottom 2
WINDOW 3 32 32 VTop 2
SYMATTR InstName D2
SYMATTR Value 1N4148
SYMBOL cap -384 272 R0
SYMATTR InstName C9
SYMATTR Value 1µF
SYMBOL res -384 64 R0
SYMATTR InstName R5
SYMATTR Value 1Meg
TEXT -336 0 Left 2 !.lib irf7470.spi
TEXT -288 88 Left 2 !.lib MBRB1045.sp2
TEXT -360 552 Left 2 !.tran 0 100m 0 1m startup
